/*--------------------------------*- C++ -*----------------------------------*\
| =========                 |                                                 |
| \\      /  F ield         | OpenFOAM: The Open Source CFD Toolbox           |
|  \\    /   O peration     | Version:  2.2.1                                 |
|   \\  /    A nd           | Web:      www.OpenFOAM.org                      |
|    \\/     M anipulation  |                                                 |
\*---------------------------------------------------------------------------*/
FoamFile
{
    version     2.0;
    format      ascii;
    class       volScalarField;
    location    "0";
    object      epsilon;
}
// * * * * * * * * * * * * * * * * * * * * * * * * * * * * * * * * * * * * * //
dimensions      [0 0 -1 0 0 0 0];

internalField   uniform 15.08914;//0.148575945;//0.044572784;

boundaryField
{

	"(inlet|outlet|sides)"
    {
        type            inletOutlet;
        inletValue      $internalField;
        value           $internalField;
    }
    blade
    {
        type            omegaWallFunction;
        value           $internalField;
    }
	duct
    {
        type            omegaWallFunction;
        value           $internalField;
    }
    
}


// ************************************************************************* //
