/*--------------------------------*- C++ -*----------------------------------*\
|       o          |                                                          |
|    o     o       | HELYX                                                  |
|   o   O   o      | Version: v2.2.0                                           |
|    o     o       | Web:     http://www.engys.com                            |
|       o          |                                                          |
\*---------------------------------------------------------------------------*/
FoamFile
{
    version 2.0;
    format ascii;
    class dictionary;
    object blockMeshDict;
}

		
x_inlet	18	;
x_outlet -36	;
		
z_bottom -16 	;
z_top	16	;
		
y_left	-16 	;
y_right	16 	;
		
Nx 45;
Ny 27;
Nz 27;
		

vertices  
(
      ( $x_inlet $y_left $z_bottom)
      ( $x_outlet $y_left $z_bottom)
      ( $x_outlet $y_right $z_bottom)
      ( $x_inlet $y_right $z_bottom)
      ( $x_inlet $y_left $z_top)
      ( $x_outlet $y_left $z_top)
      ( $x_outlet $y_right $z_top)
      ( $x_inlet $y_right $z_top)
);

blocks  
( 
      hex ( 3 2 1 0 7 6 5 4 ) ( $Nx $Ny $Nz) simpleGrading ( 1 1 1)
);

edges  
(
);
    
boundary  
(
    inlet
    {
        type patch;
        faces  
        (
          ( 0 4 7 3)
        );
    }

    outlet
    {
        type patch;
        faces  
        (
          ( 1 5 6 2)
        );
    }

    sides
    {
        type patch;
        faces  
        (
          ( 0 1 2 3)
          ( 4 5 6 7)
          ( 3 7 6 2)
          ( 0 4 5 1)
        );
    }

);

mergePatchPairs  
(
);

fromFile true;
